Version 4
SHEET 1 880 680
WIRE 272 112 80 112
WIRE 352 160 272 160
WIRE 224 192 -48 192
WIRE -48 208 -48 192
WIRE 80 208 80 112
WIRE 352 208 352 160
WIRE 352 208 272 208
WIRE 272 224 272 208
FLAG 272 224 0
FLAG -48 288 0
FLAG 80 288 0
SYMBOL nmos4 224 112 R0
SYMATTR InstName M1
SYMATTR Value2 l=1u w=360nm
SYMBOL voltage 80 192 R0
SYMATTR InstName V1
SYMATTR Value PWL(0 -1 1n  0 2n 1)
SYMBOL voltage -48 192 R0
WINDOW 123 0 0 Left 0
WINDOW 39 0 0 Left 0
SYMATTR InstName V2
SYMATTR Value 1
TEXT -96 40 Left 2 !.inc D:\\Desktop\\DCOMS\\ptm_45nm_hp.l
TEXT -168 336 Left 2 !.tran 2n
